@<TRIPOS>MOLECULE
L1
 49 53 0 0 0
SMALL
GASTEIGER

@<TRIPOS>ATOM
      1 N           1.3767   -0.6103    0.1906 N.ar    1  L1       -0.1798
      2 C           1.2607    0.7577    0.1199 C.ar    1  L1        0.2560
      3 N           2.2886    1.6246    0.0687 N.ar    1  L1       -0.2092
      4 C           3.4926    0.9793    0.0952 C.ar    1  L1        0.0955
      5 C           3.7088   -0.4068    0.1661 C.ar    1  L1        0.1178
      6 C           2.6023   -1.2585    0.2171 C.ar    1  L1        0.1502
      7 N           0.1790   -1.2074    0.2288 N.ar    1  L1       -0.1352
      8 C          -0.6233   -0.1320    0.1775 C.ar    1  L1        0.2113
      9 N          -0.0043    1.0939    0.1099 N.ar    1  L1       -0.1834
     10 N           2.7165   -2.5969    0.2862 N.am    1  L1       -0.2626
     11 C           4.9283   -0.8932    0.1841 C.1     1  L1        0.1048
     12 C           4.5835    1.7509    0.0486 C.ar    1  L1        0.0018
     13 S          -2.4314   -0.2885    0.1964 S.3     1  L1       -0.0796
     14 C          -2.7144    1.5020    0.1047 C.3     1  L1        0.0263
     15 C          -4.1861    1.7757    0.0992 C.ar    1  L1       -0.0371
     16 C          -4.6510    3.0891    0.0335 C.ar    1  L1       -0.0578
     17 C          -6.0223    3.3441    0.0285 C.ar    1  L1       -0.0615
     18 C          -6.9287    2.2856    0.0891 C.ar    1  L1       -0.0617
     19 C          -6.4639    0.9722    0.1547 C.ar    1  L1       -0.0615
     20 C          -5.0925    0.7172    0.1598 C.ar    1  L1       -0.0578
     21 C           5.2702    1.9158   -1.1542 C.ar    1  L1       -0.0525
     22 C           6.4083    2.7208   -1.2028 C.ar    1  L1       -0.0611
     23 C           6.8596    3.3609   -0.0486 C.ar    1  L1       -0.0617
     24 C           6.1728    3.1960    1.1542 C.ar    1  L1       -0.0611
     25 C           5.0347    2.3910    1.2028 C.ar    1  L1       -0.0525
     26 N           6.0038   -1.3222    0.2000 N.1     1  L1       -0.1907
     27 C           3.9560   -3.1778    0.3091 C.2     1  L1        0.2846
     28 C           5.0643   -2.4068    0.2623 C.ar    1  L1        0.1894
     29 O           4.0585   -4.3799    0.3712 O.2     1  L1       -0.2664
     30 O           5.3074   -1.3493    1.0791 O.2     1  L1       -0.4583
     31 C           6.5147   -0.8429    0.7176 C.ar    1  L1        0.0928
     32 C           7.0471   -1.5670   -0.3237 C.ar    1  L1       -0.0231
     33 C           6.1055   -2.5823   -0.6193 C.ar    1  L1       -0.0113
     34 H           1.8863   -3.1745    0.3213 H       1  L1        0.1567
     35 H          -2.2490    1.9962    0.9867 H       1  L1        0.0429
     36 H          -2.2593    1.9020   -0.8289 H       1  L1        0.0429
     37 H          -3.9361    3.9238   -0.0144 H       1  L1        0.0621
     38 H          -6.3890    4.3799   -0.0232 H       1  L1        0.0618
     39 H          -8.0102    2.4868    0.0851 H       1  L1        0.0618
     40 H          -7.1787    0.1375    0.2024 H       1  L1        0.0618
     41 H          -4.7259   -0.3186    0.2116 H       1  L1        0.0621
     42 H           4.9142    1.4111   -2.0645 H       1  L1        0.0624
     43 H           6.9499    2.8508   -2.1513 H       1  L1        0.0618
     44 H           7.7571    3.9957   -0.0869 H       1  L1        0.0618
     45 H           6.5287    3.7009    2.0644 H       1  L1        0.0618
     46 H           4.4931    2.2609    2.1513 H       1  L1        0.0624
     47 H           6.9987    0.0242    1.1909 H       1  L1        0.1029
     48 H           8.0102   -1.3924   -0.8256 H       1  L1        0.0649
     49 H           6.1897   -3.3556   -1.3971 H       1  L1        0.0657
@<TRIPOS>BOND
     1     1     2   ar
     2     6     1   ar
     3     1     7   ar
     4     2     3   ar
     5     9     2   ar
     6     4     3   ar
     7     4     5   ar
     8     4    12    1
     9     5     6   ar
    10     5    11    1
    11     6    10    1
    12     7     8   ar
    13     8     9   ar
    14     8    13    1
    15    10    27   am
    16    10    34    1
    17    11    26    3
    18    12    21   ar
    19    12    25   ar
    20    13    14    1
    21    14    15    1
    22    14    35    1
    23    14    36    1
    24    15    16   ar
    25    15    20   ar
    26    16    17   ar
    27    16    37    1
    28    17    18   ar
    29    17    38    1
    30    18    19   ar
    31    18    39    1
    32    19    20   ar
    33    19    40    1
    34    20    41    1
    35    21    22   ar
    36    21    42    1
    37    22    23   ar
    38    22    43    1
    39    23    24   ar
    40    23    44    1
    41    24    25   ar
    42    24    45    1
    43    25    46    1
    44    27    28    1
    45    27    29    2
    46    28    30   ar
    47    28    33   ar
    48    31    30   ar
    49    32    31   ar
    50    31    47    1
    51    33    32   ar
    52    32    48    1
    53    33    49    1
